.model test D
+IS=3.23018e-06 RS=0.1 N=1.03425 EG=1.3
+XTI=3.22338 BV=69.3 IBV=0.0003 CJO=10e-12
+VJ=0.481645 M=0.492901 FC=0.5 TT=1e-09
+KF=0 AF=1 TNOM=27
